/*--------------------------------*- C++ -*----------------------------------*\
| =========                 |                                                 |
| \\      /  F ield         | OpenFOAM: The Open Source CFD Toolbox           |
|  \\    /   O peration     | Version:  2.0.0                                 |
|   \\  /    A nd           | Web:      www.OpenFOAM.org                      |
|    \\/     M anipulation  |                                                 |
\*---------------------------------------------------------------------------*/
FoamFile
{
    version     2.0;
    format      ascii;
    class       dictionary;
    object      changeDictionaryDict;
}
// * * * * * * * * * * * * * * * * * * * * * * * * * * * * * * * * * * * * * //

dictionaryReplacement
{
    T
    {
        boundaryField
        {
            wallFilm
            {
                type            directMapped;
                fieldName       Tsf;
                average         300;
                setAverage      no;
                value           uniform 300;
            }
        }
    }

    U
    {
        boundaryField
        {
            wallFilm
            {
                type            directMapped;
                fieldName       Usf;
                average         (0 0 0);
                setAverage      no;
                value           uniform (0 0 0);
            }
        }
    }
}

// ************************************************************************* //
