/*---------------------------------------------------------------------------*\
| =========                 |                                                 |
| \\      /  F ield         | OpenFOAM: The Open Source CFD Toolbox           |
|  \\    /   O peration     | Version:  2.0.0                                 |
|   \\  /    A nd           | Web:      www.OpenFOAM.com                      |
|    \\/     M anipulation  |                                                 |
\*---------------------------------------------------------------------------*/
FoamFile
{
    version     2.0;
    format      binary;
    class       dictionary;
    location    "constant";
    object      pyrolysisProperties;
}
// * * * * * * * * * * * * * * * * * * * * * * * * * * * * * * * * * * * * * //

active          true;

pyrolysisModel  reactingOneDim;

regionName      panelRegion;

reactingOneDimCoeffs
{
    filmCoupled     false;

    radFluxName     Qr;

    minimumDelta    1e-8;

    moveMesh        false;
}

infoOutput      true;

// ************************************************************************* //
