/*--------------------------------*- C++ -*----------------------------------*\
| =========                 |                                                 |
| \\      /  F ield         | OpenFOAM: The Open Source CFD Toolbox           |
|  \\    /   O peration     | Version:  2.0.0                                 |
|   \\  /    A nd           | Web:      www.OpenFOAM.org                      |
|    \\/     M anipulation  |                                                 |
\*---------------------------------------------------------------------------*/
FoamFile
{
    version     2.0;
    format      ascii;
    class       dictionary;
    location    "constant";
    object      mechanicalProperties;
}
// * * * * * * * * * * * * * * * * * * * * * * * * * * * * * * * * * * * * * //

rho
{
    rho         rhoInf;
    rhoInf      rhoInf [ 1 -3 0 0 0 0 0 ] 7854;
}

nu
{
    nu          nuInf;
    nuInf       nuInf [ 0 0 0 0 0 0 0 ] 0.3;
}

E
{
    E           EInf;
    EInf        EInf [ 1 -1 -2 0 0 0 0 ] 2e+11;
}

planeStress     yes;


// ************************************************************************* //
