/*--------------------------------*- C++ -*----------------------------------*\
| =========                 |                                                 |
| \\      /  F ield         | OpenFOAM: The Open Source CFD Toolbox           |
|  \\    /   O peration     | Version:  2.0.0                                 |
|   \\  /    A nd           | Web:      www.OpenFOAM.org                      |
|    \\/     M anipulation  |                                                 |
\*---------------------------------------------------------------------------*/
FoamFile
{
    version     2.0;
    format      ascii;
    class       dictionary;
    location    "system";
    object      fvSolution;
}
// * * * * * * * * * * * * * * * * * * * * * * * * * * * * * * * * * * * * * //

solvers
{
    "(p|rho)"
    {
        solver          PCG;
        preconditioner  DIC;
        tolerance       1e-09;
        relTol          0.1;
    }

    "(p|rho)Final"
    {
        $p;
        tolerance       1e-09;
        relTol          0;
    }

    "(k|epsilon)"
    {
        solver          PBiCG;
        preconditioner  DILU;
        tolerance       1e-06;
        relTol          0.1;
    }

    "(k|epsilon)Final"
    {
        $k;
        tolerance       1e-06;
        relTol          0;
    }

    "(U|hs)"
    {
        solver          PBiCG;
        preconditioner  DILU;
        tolerance       1e-06;
        relTol          0.1;
    }

    "(U|hs)Final"
    {
        $U;
        tolerance       1e-06;
        relTol          0;
    }

    Yi
    {
        $hsFinal;
    }
}

PIMPLE
{
    nOuterCorrectors 1;
    nCorrectors     2;
    nNonOrthogonalCorrectors 0;
}


// ************************************************************************* //
