/*--------------------------------*- C++ -*----------------------------------*\
| =========                 |                                                 |
| \\      /  F ield         | OpenFOAM: The Open Source CFD Toolbox           |
|  \\    /   O peration     | Version:  2.0.0                                 |
|   \\  /    A nd           | Web:      www.OpenFOAM.org                      |
|    \\/     M anipulation  |                                                 |
\*---------------------------------------------------------------------------*/
FoamFile
{
    version     2.0;
    format      ascii;
    class       dictionary;
    object      changeDictionaryDict;
}
// * * * * * * * * * * * * * * * * * * * * * * * * * * * * * * * * * * * * * //

dictionaryReplacement
{
    p
    {
        boundaryField
        {
            blockedFaces
            {
                type        zeroGradient;
            }
        }
    }

    U
    {
        boundaryField
        {
            blockedFaces
            {
                type            fixedValue;
                value           uniform (0 0 0);
            }
        }
    }

    epsilon
    {
        boundaryField
        {
            blockedFaces
            {
                type            compressible::epsilonWallFunction;
                value           uniform 0.1;
            }
        }
    }

    k
    {
        boundaryField
        {
            blockedFaces
            {
                type        compressible::kqRWallFunction;
                value       uniform 1.5;
        }
    }

    Su
    {
        boundaryField
        {
            blockedFaces
            {
                type        zeroGradient;
            }
        }
    }

    Xi
    {
        boundaryField
        {
            blockedFaces
            {
                type        zeroGradient;
                value       uniform 1;
            }
        }
    }

    T
    {
        boundaryField
        {
            blockedFaces
            {
                type        zeroGradient;
                value       uniform 300;
            }
        }
    }

    Tu
    {
        boundaryField
        {
            blockedFaces
            {
                type        zeroGradient;
                value       uniform 300;
            }
        }
    }

    b
    {
        boundaryField
        {
            blockedFaces
            {
                type        zeroGradient;
                value       uniform 1;
            }
        }
    }

    ft
    {
        boundaryField
        {
            blockedFaces
            {
                type        zeroGradient;
            }
        }
    }

    Aw
    {
        boundaryField
        {
            blockedFaces
            {
                type        zeroGradient;
                value       uniform 0.0;
            }
        }
    }
    B
    {
        boundaryField
        {
            blockedFaces
            {
                type        zeroGradient;
                value       uniform (0 0 0 0 0 0);
            }
        }
    }
    betav
    {
        boundaryField
        {
            blockedFaces
            {
                type        zeroGradient;
                value       uniform 0;
            }
        }
    }
    CR
    {
        boundaryField
        {
            blockedFaces
            {
                type        zeroGradient;
                value       uniform (0 0 0 0 0 0);
            }
        }
    }
    CT
    {
        boundaryField
        {
            blockedFaces
            {
                type        zeroGradient;
                value       uniform (0 0 0 0 0 0);
            }
        }
    }
    Nv
    {
        boundaryField
        {
            blockedFaces
            {
                type        zeroGradient;
                value       uniform 0;
            }
        }
    }
    nsv
    {
        boundaryField
        {
            blockedFaces
            {
                type        zeroGradient;
                value       uniform (0 0 0 0 0 0);
            }
        }
    }
    Lobs
    {
        boundaryField
        {
            blockedFaces
            {
                type        zeroGradient;
                value       uniform 0;
            }
        }
    }
}

// ************************************************************************* //
